# generated using pymatgen
data_PdPb4
_symmetry_space_group_name_H-M   P4_2/mnm
_cell_length_a   5.93445842
_cell_length_b   5.93445842
_cell_length_c   9.26617009
_cell_angle_alpha   90.00000000
_cell_angle_beta   90.00000000
_cell_angle_gamma   90.00000000
_symmetry_Int_Tables_number   136
_chemical_formula_structural   PdPb4
_chemical_formula_sum   'ID_2'
_cell_volume   326.33409430
_cell_formula_units_Z   2
loop_
 _symmetry_equiv_pos_site_id
 _symmetry_equiv_pos_as_xyz
  1  'x, y, z'
  2  '-x, -y, -z'
  3  '-y+1/2, x+1/2, z+1/2'
  4  'y+1/2, -x+1/2, -z+1/2'
  5  '-x, -y, z'
  6  'x, y, -z'
  7  'y+1/2, -x+1/2, z+1/2'
  8  '-y+1/2, x+1/2, -z+1/2'
  9  'x+1/2, -y+1/2, -z+1/2'
  10  '-x+1/2, y+1/2, z+1/2'
  11  '-y, -x, -z'
  12  'y, x, z'
  13  '-x+1/2, y+1/2, -z+1/2'
  14  'x+1/2, -y+1/2, z+1/2'
  15  'y, x, -z'
  16  '-y, -x, z'
loop_
 _atom_site_type_symbol
 _atom_site_label
 _atom_site_symmetry_multiplicity
 _atom_site_fract_x
 _atom_site_fract_y
 _atom_site_fract_z
 _atom_site_occupancy
  Pd  Pd0  2  0.00000000  0.00000000  0.00000000  1
  Pb  Pb1  4  0.00000000  0.50000000  0.25000000  1
  Pb  Pb2  4  0.18005966  0.81994034  0.50000000  1
# generated using pymatgen
data_Fe(PdPb)2
_symmetry_space_group_name_H-M   P4/mmm
_cell_length_a   10.14834838
_cell_length_b   10.14834838
_cell_length_c   5.46736702
_cell_angle_alpha   90.00000000
_cell_angle_beta   90.00000000
_cell_angle_gamma   90.00000000
_symmetry_Int_Tables_number   123
_chemical_formula_structural   Fe(PdPb)2
_chemical_formula_sum   'ID_3'
_cell_volume   563.07852459
_cell_formula_units_Z   5
loop_
 _symmetry_equiv_pos_site_id
 _symmetry_equiv_pos_as_xyz
  1  'x, y, z'
  2  '-x, -y, -z'
  3  '-y, x, z'
  4  'y, -x, -z'
  5  '-x, -y, z'
  6  'x, y, -z'
  7  'y, -x, z'
  8  '-y, x, -z'
  9  'x, -y, -z'
  10  '-x, y, z'
  11  '-y, -x, -z'
  12  'y, x, z'
  13  '-x, y, -z'
  14  'x, -y, z'
  15  'y, x, -z'
  16  '-y, -x, z'
loop_
 _atom_site_type_symbol
 _atom_site_label
 _atom_site_symmetry_multiplicity
 _atom_site_fract_x
 _atom_site_fract_y
 _atom_site_fract_z
 _atom_site_occupancy
  Fe  Fe0  4  0.00000000  0.16271567  0.00000000  1
  Fe  Fe1  1  0.00000000  0.00000000  0.50000000  1
  Pd  Pd2  8  0.23668558  0.23668558  0.24042951  1
  Pd  Pd3  2  0.00000000  0.50000000  0.50000000  1
  Pb  Pb4  4  0.00000000  0.25098742  0.50000000  1
  Pb  Pb5  4  0.16013966  0.50000000  0.00000000  1
  Pb  Pb6  1  0.50000000  0.50000000  0.00000000  1
  Pb  Pb7  1  0.50000000  0.50000000  0.50000000  1
# generated using pymatgen
data_Fe10Pd7Pb6
_symmetry_space_group_name_H-M   P-3
_cell_length_a   5.41563124
_cell_length_b   5.41563124
_cell_length_c   16.51596066
_cell_angle_alpha   90.00000000
_cell_angle_beta   90.00000000
_cell_angle_gamma   120.00000000
_symmetry_Int_Tables_number   147
_chemical_formula_structural   Fe10Pd7Pb6
_chemical_formula_sum   'ID_1'
_cell_volume   419.50065219
_cell_formula_units_Z   1
loop_
 _symmetry_equiv_pos_site_id
 _symmetry_equiv_pos_as_xyz
  1  'x, y, z'
  2  '-x, -y, -z'
  3  '-y, x-y, z'
  4  'y, -x+y, -z'
  5  '-x+y, -x, z'
  6  'x-y, x, -z'
loop_
 _atom_site_type_symbol
 _atom_site_label
 _atom_site_symmetry_multiplicity
 _atom_site_fract_x
 _atom_site_fract_y
 _atom_site_fract_z
 _atom_site_occupancy
  Fe  Fe0  6  0.03564066  0.43945974  0.06240812  1
  Fe  Fe1  3  0.00000000  0.50000000  0.50000000  1
  Fe  Fe2  1  0.00000000  0.00000000  0.50000000  1
  Pd  Pd3  6  0.06693341  0.32240505  0.82744848  1
  Pd  Pd4  1  0.00000000  0.00000000  0.00000000  1
  Pb  Pb5  6  0.00130977  0.67199215  0.33987719  1
# generated using pymatgen
data_Fe7Pd10
_symmetry_space_group_name_H-M   I4mm
_cell_length_a   7.69237302
_cell_length_b   7.69237302
_cell_length_c   8.23674702
_cell_angle_alpha   90.00000000
_cell_angle_beta   90.00000000
_cell_angle_gamma   90.00000000
_symmetry_Int_Tables_number   107
_chemical_formula_structural   Fe7Pd10
_chemical_formula_sum   'ID_0'
_cell_volume   487.38975906
_cell_formula_units_Z   2
loop_
 _symmetry_equiv_pos_site_id
 _symmetry_equiv_pos_as_xyz
  1  'x, y, z'
  2  '-y, x, z'
  3  '-x, -y, z'
  4  'y, -x, z'
  5  '-x, y, z'
  6  'y, x, z'
  7  'x, -y, z'
  8  '-y, -x, z'
  9  'x+1/2, y+1/2, z+1/2'
  10  '-y+1/2, x+1/2, z+1/2'
  11  '-x+1/2, -y+1/2, z+1/2'
  12  'y+1/2, -x+1/2, z+1/2'
  13  '-x+1/2, y+1/2, z+1/2'
  14  'y+1/2, x+1/2, z+1/2'
  15  'x+1/2, -y+1/2, z+1/2'
  16  '-y+1/2, -x+1/2, z+1/2'
loop_
 _atom_site_type_symbol
 _atom_site_label
 _atom_site_symmetry_multiplicity
 _atom_site_fract_x
 _atom_site_fract_y
 _atom_site_fract_z
 _atom_site_occupancy
  Fe  Fe0  8  0.00000000  0.25026661  0.52513023  1
  Fe  Fe1  4  0.00000000  0.50000000  0.20647345  1
  Fe  Fe2  2  0.00000000  0.00000000  0.37739995  1
  Pd  Pd3  8  0.00000000  0.30217349  0.94776658  1
  Pd  Pd4  8  0.22608266  0.77391734  0.23357110  1
  Pd  Pd5  2  0.00000000  0.00000000  0.09444284  1
  Pd  Pd6  2  0.00000000  0.00000000  0.74035638  1
# generated using pymatgen
data_Fe8Pd2Pb7
_symmetry_space_group_name_H-M   Cm
_cell_length_a   6.36571075
_cell_length_b   13.59140063
_cell_length_c   8.10179348
_cell_angle_alpha   90.00000000
_cell_angle_beta   104.19245073
_cell_angle_gamma   90.00000000
_symmetry_Int_Tables_number   8
_chemical_formula_structural   Fe8Pd2Pb7
_chemical_formula_sum   'ID_4'
_cell_volume   679.56357279
_cell_formula_units_Z   2
loop_
 _symmetry_equiv_pos_site_id
 _symmetry_equiv_pos_as_xyz
  1  'x, y, z'
  2  'x, -y, z'
  3  'x+1/2, y+1/2, z'
  4  'x+1/2, -y+1/2, z'
loop_
 _atom_site_type_symbol
 _atom_site_label
 _atom_site_symmetry_multiplicity
 _atom_site_fract_x
 _atom_site_fract_y
 _atom_site_fract_z
 _atom_site_occupancy
  Fe  Fe0  4  0.13496323  0.41696026  0.00122043  1
  Fe  Fe1  4  0.27680931  0.10266644  0.80732727  1
  Fe  Fe2  4  0.29793021  0.91647460  0.10430441  1
  Fe  Fe3  2  0.06485672  0.00000000  0.58326846  1
  Fe  Fe4  2  0.49742969  0.50000000  0.20457969  1
  Pd  Pd5  2  0.03947564  0.50000000  0.67663756  1
  Pd  Pd6  2  0.45795854  0.50000000  0.88384441  1
  Pb  Pb7  4  0.27011699  0.85564946  0.44119126  1
  Pb  Pb8  4  0.31946271  0.32748395  0.68965393  1
  Pb  Pb9  4  0.45919633  0.27389242  0.08892154  1
  Pb  Pb10  2  0.15782634  0.50000000  0.34900952  1
# generated using pymatgen
data_FePd2Pb
_symmetry_space_group_name_H-M   P-62m
_cell_length_a   8.40209817
_cell_length_b   8.40209817
_cell_length_c   7.97585751
_cell_angle_alpha   90.00000000
_cell_angle_beta   90.00000000
_cell_angle_gamma   120.00000000
_symmetry_Int_Tables_number   189
_chemical_formula_structural   FePd2Pb
_chemical_formula_sum   'ID_5'
_cell_volume   487.62225836
_cell_formula_units_Z   6
loop_
 _symmetry_equiv_pos_site_id
 _symmetry_equiv_pos_as_xyz
  1  'x, y, z'
  2  '-x+y, -x, -z'
  3  '-y, x-y, z'
  4  'x, y, -z'
  5  '-x+y, -x, z'
  6  '-y, x-y, -z'
  7  'y, x, z'
  8  '-x, -x+y, -z'
  9  'x-y, -y, z'
  10  'y, x, -z'
  11  '-x, -x+y, z'
  12  'x-y, -y, -z'
loop_
 _atom_site_type_symbol
 _atom_site_label
 _atom_site_symmetry_multiplicity
 _atom_site_fract_x
 _atom_site_fract_y
 _atom_site_fract_z
 _atom_site_occupancy
  Fe  Fe0  6  0.00000000  0.35641893  0.34283136  1
  Pd  Pd1  6  0.17441269  0.70550467  0.50000000  1
  Pd  Pd2  3  0.00000000  0.33749245  0.00000000  1
  Pd  Pd3  2  0.00000000  0.00000000  0.33754300  1
  Pd  Pd4  1  0.00000000  0.00000000  0.00000000  1
  Pb  Pb5  6  0.00000000  0.69057988  0.19082961  1
# generated using pymatgen
data_Fe(PdPb2)2
_symmetry_space_group_name_H-M   P321
_cell_length_a   7.08914364
_cell_length_b   7.08914364
_cell_length_c   11.17329888
_cell_angle_alpha   90.00000000
_cell_angle_beta   90.00000000
_cell_angle_gamma   120.00000000
_symmetry_Int_Tables_number   150
_chemical_formula_structural   Fe(PdPb2)2
_chemical_formula_sum   'ID_6'
_cell_volume   486.29477057
_cell_formula_units_Z   3
loop_
 _symmetry_equiv_pos_site_id
 _symmetry_equiv_pos_as_xyz
  1  'x, y, z'
  2  '-y, x-y, z'
  3  '-x+y, -x, z'
  4  'y, x, -z'
  5  'x-y, -y, -z'
  6  '-x, -x+y, -z'
loop_
 _atom_site_type_symbol
 _atom_site_label
 _atom_site_symmetry_multiplicity
 _atom_site_fract_x
 _atom_site_fract_y
 _atom_site_fract_z
 _atom_site_occupancy
  Fe  Fe0  2  0.33333333  0.66666667  0.31915378  1
  Fe  Fe1  1  0.00000000  0.00000000  0.50000000  1
  Pd  Pd2  6  0.08982035  0.42408215  0.13971774  1
  Pb  Pb3  6  0.04861049  0.74319947  0.72008577  1
  Pb  Pb4  3  0.00000000  0.39319279  0.50000000  1
  Pb  Pb5  2  0.33333333  0.66666667  0.94212149  1
  Pb  Pb6  1  0.00000000  0.00000000  0.00000000  1
# generated using pymatgen
data_Fe3PdPb
_symmetry_space_group_name_H-M   P6mm
_cell_length_a   4.70317683
_cell_length_b   4.70317683
_cell_length_c   8.61071167
_cell_angle_alpha   90.00000000
_cell_angle_beta   90.00000000
_cell_angle_gamma   120.00000000
_symmetry_Int_Tables_number   183
_chemical_formula_structural   Fe3PdPb
_chemical_formula_sum   'ID_9'
_cell_volume   164.94998984
_cell_formula_units_Z   2
loop_
 _symmetry_equiv_pos_site_id
 _symmetry_equiv_pos_as_xyz
  1  'x, y, z'
  2  'x-y, x, z'
  3  '-y, x-y, z'
  4  '-x, -y, z'
  5  '-x+y, -x, z'
  6  'y, -x+y, z'
  7  'y, x, z'
  8  'x, x-y, z'
  9  'x-y, -y, z'
  10  '-y, -x, z'
  11  '-x, -x+y, z'
  12  '-x+y, y, z'
loop_
 _atom_site_type_symbol
 _atom_site_label
 _atom_site_symmetry_multiplicity
 _atom_site_fract_x
 _atom_site_fract_y
 _atom_site_fract_z
 _atom_site_occupancy
  Fe  Fe0  3  0.00000000  0.50000000  0.14330084  1
  Fe  Fe1  2  0.33333333  0.66666667  0.90333325  1
  Fe  Fe2  1  0.00000000  0.00000000  0.01647636  1
  Pd  Pd3  2  0.33333333  0.66666667  0.43944755  1
  Pb  Pb4  1  0.00000000  0.00000000  0.35162464  1
  Pb  Pb5  1  0.00000000  0.00000000  0.71176507  1
# generated using pymatgen
data_Fe11Pd10
_symmetry_space_group_name_H-M   P3
_cell_length_a   11.13825234
_cell_length_b   11.13825234
_cell_length_c   2.66689819
_cell_angle_alpha   90.00000000
_cell_angle_beta   90.00000000
_cell_angle_gamma   120.00000000
_symmetry_Int_Tables_number   143
_chemical_formula_structural   Fe11Pd10
_chemical_formula_sum   'ID_7'
_cell_volume   286.53070855
_cell_formula_units_Z   1
loop_
 _symmetry_equiv_pos_site_id
 _symmetry_equiv_pos_as_xyz
  1  'x, y, z'
  2  '-y, x-y, z'
  3  '-x+y, -x, z'
loop_
 _atom_site_type_symbol
 _atom_site_label
 _atom_site_symmetry_multiplicity
 _atom_site_fract_x
 _atom_site_fract_y
 _atom_site_fract_z
 _atom_site_occupancy
  Fe  Fe0  3  0.16175478  0.72885799  0.64133510  1
  Fe  Fe1  3  0.44381996  0.15908334  0.94038415  1
  Fe  Fe2  3  0.49023949  0.38303423  0.59053364  1
  Fe  Fe3  1  0.33333333  0.66666667  0.44178099  1
  Fe  Fe4  1  0.66666667  0.33333333  0.27584581  1
  Pd  Pd5  3  0.02345875  0.23904189  0.51391098  1
  Pd  Pd6  3  0.09452198  0.49548234  0.07770181  1
  Pd  Pd7  3  0.25501164  0.22477607  0.11799299  1
  Pd  Pd8  1  0.00000000  0.00000000  0.95193055  1
# generated using pymatgen
data_Fe7Pd9Pb11
_symmetry_space_group_name_H-M   R-3m
_cell_length_a   13.94726199
_cell_length_b   13.94726199
_cell_length_c   12.09695087
_cell_angle_alpha   90.00000000
_cell_angle_beta   90.00000000
_cell_angle_gamma   120.00000000
_symmetry_Int_Tables_number   166
_chemical_formula_structural   Fe7Pd9Pb11
_chemical_formula_sum   'ID_8'
_cell_volume   2037.90749499
_cell_formula_units_Z   3
loop_
 _symmetry_equiv_pos_site_id
 _symmetry_equiv_pos_as_xyz
  1  'x, y, z'
  2  '-x, -y, -z'
  3  '-y, x-y, z'
  4  'y, -x+y, -z'
  5  '-x+y, -x, z'
  6  'x-y, x, -z'
  7  'y, x, -z'
  8  '-y, -x, z'
  9  'x-y, -y, -z'
  10  '-x+y, y, z'
  11  '-x, -x+y, -z'
  12  'x, x-y, z'
  13  'x+2/3, y+1/3, z+1/3'
  14  '-x+2/3, -y+1/3, -z+1/3'
  15  '-y+2/3, x-y+1/3, z+1/3'
  16  'y+2/3, -x+y+1/3, -z+1/3'
  17  '-x+y+2/3, -x+1/3, z+1/3'
  18  'x-y+2/3, x+1/3, -z+1/3'
  19  'y+2/3, x+1/3, -z+1/3'
  20  '-y+2/3, -x+1/3, z+1/3'
  21  'x-y+2/3, -y+1/3, -z+1/3'
  22  '-x+y+2/3, y+1/3, z+1/3'
  23  '-x+2/3, -x+y+1/3, -z+1/3'
  24  'x+2/3, x-y+1/3, z+1/3'
  25  'x+1/3, y+2/3, z+2/3'
  26  '-x+1/3, -y+2/3, -z+2/3'
  27  '-y+1/3, x-y+2/3, z+2/3'
  28  'y+1/3, -x+y+2/3, -z+2/3'
  29  '-x+y+1/3, -x+2/3, z+2/3'
  30  'x-y+1/3, x+2/3, -z+2/3'
  31  'y+1/3, x+2/3, -z+2/3'
  32  '-y+1/3, -x+2/3, z+2/3'
  33  'x-y+1/3, -y+2/3, -z+2/3'
  34  '-x+y+1/3, y+2/3, z+2/3'
  35  '-x+1/3, -x+y+2/3, -z+2/3'
  36  'x+1/3, x-y+2/3, z+2/3'
loop_
 _atom_site_type_symbol
 _atom_site_label
 _atom_site_symmetry_multiplicity
 _atom_site_fract_x
 _atom_site_fract_y
 _atom_site_fract_z
 _atom_site_occupancy
  Fe  Fe0  18  0.09383931  0.18767862  0.00772434  1
  Fe  Fe1  3  0.00000000  0.00000000  0.00000000  1
  Pd  Pd2  18  0.06438082  0.12876163  0.39854314  1
  Pd  Pd3  9  0.00000000  0.50000000  0.00000000  1
  Pb  Pb4  18  0.05367174  0.52683587  0.23078711  1
  Pb  Pb5  9  0.00000000  0.50000000  0.50000000  1
  Pb  Pb6  6  0.00000000  0.00000000  0.20890766  1
# generated using pymatgen
data_Pd11Pb2
_symmetry_space_group_name_H-M   Pm-3m
_cell_length_a   6.26678702
_cell_length_b   6.26678702
_cell_length_c   6.26678702
_cell_angle_alpha   90.00000000
_cell_angle_beta   90.00000000
_cell_angle_gamma   90.00000000
_symmetry_Int_Tables_number   221
_chemical_formula_structural   Pd11Pb2
_chemical_formula_sum   'ID_10'
_cell_volume   246.11314233
_cell_formula_units_Z   1
loop_
 _symmetry_equiv_pos_site_id
 _symmetry_equiv_pos_as_xyz
  1  'x, y, z'
  2  '-x, -y, -z'
  3  '-y, x, z'
  4  'y, -x, -z'
  5  '-x, -y, z'
  6  'x, y, -z'
  7  'y, -x, z'
  8  '-y, x, -z'
  9  'x, -y, -z'
  10  '-x, y, z'
  11  '-y, -x, -z'
  12  'y, x, z'
  13  '-x, y, -z'
  14  'x, -y, z'
  15  'y, x, -z'
  16  '-y, -x, z'
  17  'z, x, y'
  18  '-z, -x, -y'
  19  'z, -y, x'
  20  '-z, y, -x'
  21  'z, -x, -y'
  22  '-z, x, y'
  23  'z, y, -x'
  24  '-z, -y, x'
  25  '-z, x, -y'
  26  'z, -x, y'
  27  '-z, -y, -x'
  28  'z, y, x'
  29  '-z, -x, y'
  30  'z, x, -y'
  31  '-z, y, x'
  32  'z, -y, -x'
  33  'y, z, x'
  34  '-y, -z, -x'
  35  'x, z, -y'
  36  '-x, -z, y'
  37  '-y, z, -x'
  38  'y, -z, x'
  39  '-x, z, y'
  40  'x, -z, -y'
  41  '-y, -z, x'
  42  'y, z, -x'
  43  '-x, -z, -y'
  44  'x, z, y'
  45  'y, -z, -x'
  46  '-y, z, x'
  47  'x, -z, y'
  48  '-x, z, -y'
loop_
 _atom_site_type_symbol
 _atom_site_label
 _atom_site_symmetry_multiplicity
 _atom_site_fract_x
 _atom_site_fract_y
 _atom_site_fract_z
 _atom_site_occupancy
  Pd  Pd0  8  0.24582785  0.24582785  0.24582785  1
  Pd  Pd1  3  0.00000000  0.50000000  0.50000000  1
  Pb  Pb2  1  0.00000000  0.00000000  0.00000000  1
  Pb  Pb3  1  0.50000000  0.50000000  0.50000000  1
# generated using pymatgen
data_Fe10Pb3
_symmetry_space_group_name_H-M   P-62m
_cell_length_a   5.74478921
_cell_length_b   5.74478921
_cell_length_c   7.91921918
_cell_angle_alpha   90.00000000
_cell_angle_beta   90.00000000
_cell_angle_gamma   120.00000000
_symmetry_Int_Tables_number   189
_chemical_formula_structural   Fe10Pb3
_chemical_formula_sum   'ID_11'
_cell_volume   226.33993730
_cell_formula_units_Z   1
loop_
 _symmetry_equiv_pos_site_id
 _symmetry_equiv_pos_as_xyz
  1  'x, y, z'
  2  '-x+y, -x, -z'
  3  '-y, x-y, z'
  4  'x, y, -z'
  5  '-x+y, -x, z'
  6  '-y, x-y, -z'
  7  'y, x, z'
  8  '-x, -x+y, -z'
  9  'x-y, -y, z'
  10  'y, x, -z'
  11  '-x, -x+y, z'
  12  'x-y, -y, -z'
loop_
 _atom_site_type_symbol
 _atom_site_label
 _atom_site_symmetry_multiplicity
 _atom_site_fract_x
 _atom_site_fract_y
 _atom_site_fract_z
 _atom_site_occupancy
  Fe  Fe0  4  0.33333333  0.66666667  0.17155854  1
  Fe  Fe1  3  0.00000000  0.71194524  0.00000000  1
  Fe  Fe2  2  0.00000000  0.00000000  0.22088139  1
  Fe  Fe3  1  0.00000000  0.00000000  0.50000000  1
  Pb  Pb4  3  0.00000000  0.56331274  0.50000000  1
# generated using pymatgen
data_FePd2Pb7
_symmetry_space_group_name_H-M   R-3m
_cell_length_a   9.62535447
_cell_length_b   9.62535447
_cell_length_c   10.70333829
_cell_angle_alpha   90.00000000
_cell_angle_beta   90.00000000
_cell_angle_gamma   120.00000000
_symmetry_Int_Tables_number   166
_chemical_formula_structural   FePd2Pb7
_chemical_formula_sum   'ID_13'
_cell_volume   858.78281984
_cell_formula_units_Z   3
loop_
 _symmetry_equiv_pos_site_id
 _symmetry_equiv_pos_as_xyz
  1  'x, y, z'
  2  '-x, -y, -z'
  3  '-y, x-y, z'
  4  'y, -x+y, -z'
  5  '-x+y, -x, z'
  6  'x-y, x, -z'
  7  'y, x, -z'
  8  '-y, -x, z'
  9  'x-y, -y, -z'
  10  '-x+y, y, z'
  11  '-x, -x+y, -z'
  12  'x, x-y, z'
  13  'x+2/3, y+1/3, z+1/3'
  14  '-x+2/3, -y+1/3, -z+1/3'
  15  '-y+2/3, x-y+1/3, z+1/3'
  16  'y+2/3, -x+y+1/3, -z+1/3'
  17  '-x+y+2/3, -x+1/3, z+1/3'
  18  'x-y+2/3, x+1/3, -z+1/3'
  19  'y+2/3, x+1/3, -z+1/3'
  20  '-y+2/3, -x+1/3, z+1/3'
  21  'x-y+2/3, -y+1/3, -z+1/3'
  22  '-x+y+2/3, y+1/3, z+1/3'
  23  '-x+2/3, -x+y+1/3, -z+1/3'
  24  'x+2/3, x-y+1/3, z+1/3'
  25  'x+1/3, y+2/3, z+2/3'
  26  '-x+1/3, -y+2/3, -z+2/3'
  27  '-y+1/3, x-y+2/3, z+2/3'
  28  'y+1/3, -x+y+2/3, -z+2/3'
  29  '-x+y+1/3, -x+2/3, z+2/3'
  30  'x-y+1/3, x+2/3, -z+2/3'
  31  'y+1/3, x+2/3, -z+2/3'
  32  '-y+1/3, -x+2/3, z+2/3'
  33  'x-y+1/3, -y+2/3, -z+2/3'
  34  '-x+y+1/3, y+2/3, z+2/3'
  35  '-x+1/3, -x+y+2/3, -z+2/3'
  36  'x+1/3, x-y+2/3, z+2/3'
loop_
 _atom_site_type_symbol
 _atom_site_label
 _atom_site_symmetry_multiplicity
 _atom_site_fract_x
 _atom_site_fract_y
 _atom_site_fract_z
 _atom_site_occupancy
  Fe  Fe0  3  0.00000000  0.00000000  0.50000000  1
  Pd  Pd1  6  0.00000000  0.00000000  0.26517026  1
  Pb  Pb2  9  0.00000000  0.50000000  0.00000000  1
  Pb  Pb3  9  0.00000000  0.50000000  0.50000000  1
  Pb  Pb4  3  0.00000000  0.00000000  0.00000000  1
# generated using pymatgen
data_Fe7(Pd2Pb)5
_symmetry_space_group_name_H-M   I-4m2
_cell_length_a   7.92379924
_cell_length_b   7.92379924
_cell_length_c   14.48670502
_cell_angle_alpha   90.00000000
_cell_angle_beta   90.00000000
_cell_angle_gamma   90.00000000
_symmetry_Int_Tables_number   119
_chemical_formula_structural   Fe7(Pd2Pb)5
_chemical_formula_sum   'ID_15'
_cell_volume   909.57087225
_cell_formula_units_Z   2
loop_
 _symmetry_equiv_pos_site_id
 _symmetry_equiv_pos_as_xyz
  1  'x, y, z'
  2  'y, -x, -z'
  3  '-x, -y, z'
  4  '-y, x, -z'
  5  '-x, y, z'
  6  '-y, -x, -z'
  7  'x, -y, z'
  8  'y, x, -z'
  9  'x+1/2, y+1/2, z+1/2'
  10  'y+1/2, -x+1/2, -z+1/2'
  11  '-x+1/2, -y+1/2, z+1/2'
  12  '-y+1/2, x+1/2, -z+1/2'
  13  '-x+1/2, y+1/2, z+1/2'
  14  '-y+1/2, -x+1/2, -z+1/2'
  15  'x+1/2, -y+1/2, z+1/2'
  16  'y+1/2, x+1/2, -z+1/2'
loop_
 _atom_site_type_symbol
 _atom_site_label
 _atom_site_symmetry_multiplicity
 _atom_site_fract_x
 _atom_site_fract_y
 _atom_site_fract_z
 _atom_site_occupancy
  Fe  Fe0  8  0.00000000  0.26577051  0.13269550  1
  Fe  Fe1  4  0.00000000  0.00000000  0.18472272  1
  Fe  Fe2  2  0.00000000  0.00000000  0.50000000  1
  Pd  Pd3  8  0.00000000  0.31162140  0.81664271  1
  Pd  Pd4  8  0.00000000  0.31674023  0.31227292  1
  Pd  Pd5  4  0.00000000  0.00000000  0.34506945  1
  Pb  Pb6  8  0.22762194  0.22762194  0.50000000  1
  Pb  Pb7  2  0.00000000  0.00000000  0.00000000  1
# generated using pymatgen
data_Fe10Pd12Pb11
_symmetry_space_group_name_H-M   C2/m
_cell_length_a   13.64548660
_cell_length_b   11.75411182
_cell_length_c   10.01707739
_cell_angle_alpha   90.00000000
_cell_angle_beta   126.59799592
_cell_angle_gamma   90.00000000
_symmetry_Int_Tables_number   12
_chemical_formula_structural   Fe10Pd12Pb11
_chemical_formula_sum   'ID_12'
_cell_volume   1289.87603231
_cell_formula_units_Z   2
loop_
 _symmetry_equiv_pos_site_id
 _symmetry_equiv_pos_as_xyz
  1  'x, y, z'
  2  '-x, -y, -z'
  3  '-x, y, -z'
  4  'x, -y, z'
  5  'x+1/2, y+1/2, z'
  6  '-x+1/2, -y+1/2, -z'
  7  '-x+1/2, y+1/2, -z'
  8  'x+1/2, -y+1/2, z'
loop_
 _atom_site_type_symbol
 _atom_site_label
 _atom_site_symmetry_multiplicity
 _atom_site_fract_x
 _atom_site_fract_y
 _atom_site_fract_z
 _atom_site_occupancy
  Fe  Fe0  8  0.08669557  0.10132655  0.00337871  1
  Fe  Fe1  8  0.09471912  0.09873201  0.28998231  1
  Fe  Fe2  4  0.25000000  0.25000000  0.50000000  1
  Pd  Pd3  8  0.02136978  0.28387952  0.37610436  1
  Pd  Pd4  8  0.09641909  0.28695716  0.16661368  1
  Pd  Pd5  8  0.20907652  0.37679156  0.69574619  1
  Pb  Pb6  8  0.15211844  0.13297035  0.65131552  1
  Pb  Pb7  8  0.16906388  0.35743373  0.93881692  1
  Pb  Pb8  4  0.14774199  0.50000000  0.41737120  1
  Pb  Pb9  2  0.00000000  0.50000000  0.00000000  1
# generated using pymatgen
data_Pd2Pb
_symmetry_space_group_name_H-M   Cmmm
_cell_length_a   5.29173746
_cell_length_b   9.72340761
_cell_length_c   2.86749796
_cell_angle_alpha   90.00000000
_cell_angle_beta   90.00000000
_cell_angle_gamma   90.00000000
_symmetry_Int_Tables_number   65
_chemical_formula_structural   Pd2Pb
_chemical_formula_sum   'ID_18'
_cell_volume   147.54343768
_cell_formula_units_Z   2
loop_
 _symmetry_equiv_pos_site_id
 _symmetry_equiv_pos_as_xyz
  1  'x, y, z'
  2  '-x, -y, -z'
  3  '-x, -y, z'
  4  'x, y, -z'
  5  'x, -y, -z'
  6  '-x, y, z'
  7  '-x, y, -z'
  8  'x, -y, z'
  9  'x+1/2, y+1/2, z'
  10  '-x+1/2, -y+1/2, -z'
  11  '-x+1/2, -y+1/2, z'
  12  'x+1/2, y+1/2, -z'
  13  'x+1/2, -y+1/2, -z'
  14  '-x+1/2, y+1/2, z'
  15  '-x+1/2, y+1/2, -z'
  16  'x+1/2, -y+1/2, z'
loop_
 _atom_site_type_symbol
 _atom_site_label
 _atom_site_symmetry_multiplicity
 _atom_site_fract_x
 _atom_site_fract_y
 _atom_site_fract_z
 _atom_site_occupancy
  Pd  Pd0  4  0.25000000  0.25000000  0.00000000  1
  Pb  Pb1  2  0.00000000  0.00000000  0.00000000  1
# generated using pymatgen
data_Fe7Pd7Pb10
_symmetry_space_group_name_H-M   P-6m2
_cell_length_a   10.30080968
_cell_length_b   10.30080968
_cell_length_c   5.75040151
_cell_angle_alpha   90.00000000
_cell_angle_beta   90.00000000
_cell_angle_gamma   120.00000000
_symmetry_Int_Tables_number   187
_chemical_formula_structural   Fe7Pd7Pb10
_chemical_formula_sum   'ID_14'
_cell_volume   528.41060801
_cell_formula_units_Z   1
loop_
 _symmetry_equiv_pos_site_id
 _symmetry_equiv_pos_as_xyz
  1  'x, y, z'
  2  '-x+y, -x, -z'
  3  '-y, x-y, z'
  4  'x, y, -z'
  5  '-x+y, -x, z'
  6  '-y, x-y, -z'
  7  '-y, -x, -z'
  8  'x, x-y, z'
  9  '-x+y, y, -z'
  10  '-y, -x, z'
  11  'x, x-y, -z'
  12  '-x+y, y, z'
loop_
 _atom_site_type_symbol
 _atom_site_label
 _atom_site_symmetry_multiplicity
 _atom_site_fract_x
 _atom_site_fract_y
 _atom_site_fract_z
 _atom_site_occupancy
  Fe  Fe0  3  0.52511587  0.05023174  0.50000000  1
  Fe  Fe1  1  0.33333333  0.66666667  0.00000000  1
  Fe  Fe2  1  0.33333333  0.66666667  0.50000000  1
  Fe  Fe3  1  0.66666667  0.33333333  0.00000000  1
  Fe  Fe4  1  0.66666667  0.33333333  0.50000000  1
  Pd  Pd5  6  0.42533548  0.21266774  0.26523600  1
  Pd  Pd6  1  0.00000000  0.00000000  0.00000000  1
  Pb  Pb7  6  0.03729292  0.36897486  0.00000000  1
  Pb  Pb8  3  0.18059151  0.81940849  0.50000000  1
  Pb  Pb9  1  0.00000000  0.00000000  0.50000000  1
# generated using pymatgen
data_Fe5Pd2Pb
_symmetry_space_group_name_H-M   Pnn2
_cell_length_a   5.36426074
_cell_length_b   8.74984861
_cell_length_c   5.12463355
_cell_angle_alpha   90.00000000
_cell_angle_beta   90.00000000
_cell_angle_gamma   90.00000000
_symmetry_Int_Tables_number   34
_chemical_formula_structural   Fe5Pd2Pb
_chemical_formula_sum   'ID_17'
_cell_volume   240.53220591
_cell_formula_units_Z   2
loop_
 _symmetry_equiv_pos_site_id
 _symmetry_equiv_pos_as_xyz
  1  'x, y, z'
  2  '-x, -y, z'
  3  '-x+1/2, y+1/2, z+1/2'
  4  'x+1/2, -y+1/2, z+1/2'
loop_
 _atom_site_type_symbol
 _atom_site_label
 _atom_site_symmetry_multiplicity
 _atom_site_fract_x
 _atom_site_fract_y
 _atom_site_fract_z
 _atom_site_occupancy
  Fe  Fe0  4  0.16304111  0.21732883  0.85075691  1
  Fe  Fe1  4  0.20112998  0.95203360  0.10727560  1
  Fe  Fe2  2  0.00000000  0.00000000  0.63099390  1
  Pd  Pd3  4  0.16569788  0.22152091  0.33923141  1
  Pb  Pb4  2  0.00000000  0.50000000  0.09565269  1
# generated using pymatgen
data_PdPb
_symmetry_space_group_name_H-M   Fd-3m
_cell_length_a   7.01337131
_cell_length_b   7.01337131
_cell_length_c   7.01337131
_cell_angle_alpha   90.00000000
_cell_angle_beta   90.00000000
_cell_angle_gamma   90.00000000
_symmetry_Int_Tables_number   227
_chemical_formula_structural   PdPb
_chemical_formula_sum   'ID_19'
_cell_volume   344.96933923
_cell_formula_units_Z   8
loop_
 _symmetry_equiv_pos_site_id
 _symmetry_equiv_pos_as_xyz
  1  'x, y, z'
  2  '-y+1/4, x+1/4, z+1/4'
  3  '-x, -y+1/2, z+1/2'
  4  'y+3/4, -x+1/4, z+3/4'
  5  'x, -y, -z'
  6  '-y+1/4, -x+3/4, -z+3/4'
  7  '-x, y+1/2, -z+1/2'
  8  'y+3/4, x+3/4, -z+1/4'
  9  'z, x, y'
  10  'z+1/4, -y+1/4, x+1/4'
  11  'z+1/2, -x, -y+1/2'
  12  'z+3/4, y+3/4, -x+1/4'
  13  '-z, x, -y'
  14  '-z+3/4, -y+1/4, -x+3/4'
  15  '-z+1/2, -x, y+1/2'
  16  '-z+1/4, y+3/4, x+3/4'
  17  'y, z, x'
  18  'x+1/4, z+1/4, -y+1/4'
  19  '-y+1/2, z+1/2, -x'
  20  '-x+1/4, z+3/4, y+3/4'
  21  '-y, -z, x'
  22  '-x+3/4, -z+3/4, -y+1/4'
  23  'y+1/2, -z+1/2, -x'
  24  'x+3/4, -z+1/4, y+3/4'
  25  '-x+1/4, -y+1/4, -z+1/4'
  26  'y, -x, -z'
  27  'x+1/4, y+3/4, -z+3/4'
  28  '-y+1/2, x, -z+1/2'
  29  '-x+1/4, y+1/4, z+1/4'
  30  'y, x+1/2, z+1/2'
  31  'x+1/4, -y+3/4, z+3/4'
  32  '-y+1/2, -x+1/2, z'
  33  '-z+1/4, -x+1/4, -y+1/4'
  34  '-z, y, -x'
  35  '-z+3/4, x+1/4, y+3/4'
  36  '-z+1/2, -y+1/2, x'
  37  'z+1/4, -x+1/4, y+1/4'
  38  'z+1/2, y, x+1/2'
  39  'z+3/4, x+1/4, -y+3/4'
  40  'z, -y+1/2, -x+1/2'
  41  '-y+1/4, -z+1/4, -x+1/4'
  42  '-x, -z, y'
  43  'y+3/4, -z+3/4, x+1/4'
  44  'x, -z+1/2, -y+1/2'
  45  'y+1/4, z+1/4, -x+1/4'
  46  'x+1/2, z+1/2, y'
  47  '-y+3/4, z+3/4, x+1/4'
  48  '-x+1/2, z, -y+1/2'
  49  'x+1/2, y+1/2, z'
  50  '-y+3/4, x+3/4, z+1/4'
  51  '-x+1/2, -y, z+1/2'
  52  'y+1/4, -x+3/4, z+3/4'
  53  'x+1/2, -y+1/2, -z'
  54  '-y+3/4, -x+1/4, -z+3/4'
  55  '-x+1/2, y, -z+1/2'
  56  'y+1/4, x+1/4, -z+1/4'
  57  'z+1/2, x+1/2, y'
  58  'z+3/4, -y+3/4, x+1/4'
  59  'z, -x+1/2, -y+1/2'
  60  'z+1/4, y+1/4, -x+1/4'
  61  '-z+1/2, x+1/2, -y'
  62  '-z+1/4, -y+3/4, -x+3/4'
  63  '-z, -x+1/2, y+1/2'
  64  '-z+3/4, y+1/4, x+3/4'
  65  'y+1/2, z+1/2, x'
  66  'x+3/4, z+3/4, -y+1/4'
  67  '-y, z, -x'
  68  '-x+3/4, z+1/4, y+3/4'
  69  '-y+1/2, -z+1/2, x'
  70  '-x+1/4, -z+1/4, -y+1/4'
  71  'y, -z, -x'
  72  'x+1/4, -z+3/4, y+3/4'
  73  '-x+3/4, -y+3/4, -z+1/4'
  74  'y+1/2, -x+1/2, -z'
  75  'x+3/4, y+1/4, -z+3/4'
  76  '-y, x+1/2, -z+1/2'
  77  '-x+3/4, y+3/4, z+1/4'
  78  'y+1/2, x, z+1/2'
  79  'x+3/4, -y+1/4, z+3/4'
  80  '-y, -x, z'
  81  '-z+3/4, -x+3/4, -y+1/4'
  82  '-z+1/2, y+1/2, -x'
  83  '-z+1/4, x+3/4, y+3/4'
  84  '-z, -y, x'
  85  'z+3/4, -x+3/4, y+1/4'
  86  'z, y+1/2, x+1/2'
  87  'z+1/4, x+3/4, -y+3/4'
  88  'z+1/2, -y, -x+1/2'
  89  '-y+3/4, -z+3/4, -x+1/4'
  90  '-x+1/2, -z+1/2, y'
  91  'y+1/4, -z+1/4, x+1/4'
  92  'x+1/2, -z, -y+1/2'
  93  'y+3/4, z+3/4, -x+1/4'
  94  'x, z, y'
  95  '-y+1/4, z+1/4, x+1/4'
  96  '-x, z+1/2, -y+1/2'
  97  'x+1/2, y, z+1/2'
  98  '-y+3/4, x+1/4, z+3/4'
  99  '-x+1/2, -y+1/2, z'
  100  'y+1/4, -x+1/4, z+1/4'
  101  'x+1/2, -y, -z+1/2'
  102  '-y+3/4, -x+3/4, -z+1/4'
  103  '-x+1/2, y+1/2, -z'
  104  'y+1/4, x+3/4, -z+3/4'
  105  'z+1/2, x, y+1/2'
  106  'z+3/4, -y+1/4, x+3/4'
  107  'z, -x, -y'
  108  'z+1/4, y+3/4, -x+3/4'
  109  '-z+1/2, x, -y+1/2'
  110  '-z+1/4, -y+1/4, -x+1/4'
  111  '-z, -x, y'
  112  '-z+3/4, y+3/4, x+1/4'
  113  'y+1/2, z, x+1/2'
  114  'x+3/4, z+1/4, -y+3/4'
  115  '-y, z+1/2, -x+1/2'
  116  '-x+3/4, z+3/4, y+1/4'
  117  '-y+1/2, -z, x+1/2'
  118  '-x+1/4, -z+3/4, -y+3/4'
  119  'y, -z+1/2, -x+1/2'
  120  'x+1/4, -z+1/4, y+1/4'
  121  '-x+3/4, -y+1/4, -z+3/4'
  122  'y+1/2, -x, -z+1/2'
  123  'x+3/4, y+3/4, -z+1/4'
  124  '-y, x, -z'
  125  '-x+3/4, y+1/4, z+3/4'
  126  'y+1/2, x+1/2, z'
  127  'x+3/4, -y+3/4, z+1/4'
  128  '-y, -x+1/2, z+1/2'
  129  '-z+3/4, -x+1/4, -y+3/4'
  130  '-z+1/2, y, -x+1/2'
  131  '-z+1/4, x+1/4, y+1/4'
  132  '-z, -y+1/2, x+1/2'
  133  'z+3/4, -x+1/4, y+3/4'
  134  'z, y, x'
  135  'z+1/4, x+1/4, -y+1/4'
  136  'z+1/2, -y+1/2, -x'
  137  '-y+3/4, -z+1/4, -x+3/4'
  138  '-x+1/2, -z, y+1/2'
  139  'y+1/4, -z+3/4, x+3/4'
  140  'x+1/2, -z+1/2, -y'
  141  'y+3/4, z+1/4, -x+3/4'
  142  'x, z+1/2, y+1/2'
  143  '-y+1/4, z+3/4, x+3/4'
  144  '-x, z, -y'
  145  'x, y+1/2, z+1/2'
  146  '-y+1/4, x+3/4, z+3/4'
  147  '-x, -y, z'
  148  'y+3/4, -x+3/4, z+1/4'
  149  'x, -y+1/2, -z+1/2'
  150  '-y+1/4, -x+1/4, -z+1/4'
  151  '-x, y, -z'
  152  'y+3/4, x+1/4, -z+3/4'
  153  'z, x+1/2, y+1/2'
  154  'z+1/4, -y+3/4, x+3/4'
  155  'z+1/2, -x+1/2, -y'
  156  'z+3/4, y+1/4, -x+3/4'
  157  '-z, x+1/2, -y+1/2'
  158  '-z+3/4, -y+3/4, -x+1/4'
  159  '-z+1/2, -x+1/2, y'
  160  '-z+1/4, y+1/4, x+1/4'
  161  'y, z+1/2, x+1/2'
  162  'x+1/4, z+3/4, -y+3/4'
  163  '-y+1/2, z, -x+1/2'
  164  '-x+1/4, z+1/4, y+1/4'
  165  '-y, -z+1/2, x+1/2'
  166  '-x+3/4, -z+1/4, -y+3/4'
  167  'y+1/2, -z, -x+1/2'
  168  'x+3/4, -z+3/4, y+1/4'
  169  '-x+1/4, -y+3/4, -z+3/4'
  170  'y, -x+1/2, -z+1/2'
  171  'x+1/4, y+1/4, -z+1/4'
  172  '-y+1/2, x+1/2, -z'
  173  '-x+1/4, y+3/4, z+3/4'
  174  'y, x, z'
  175  'x+1/4, -y+1/4, z+1/4'
  176  '-y+1/2, -x, z+1/2'
  177  '-z+1/4, -x+3/4, -y+3/4'
  178  '-z, y+1/2, -x+1/2'
  179  '-z+3/4, x+3/4, y+1/4'
  180  '-z+1/2, -y, x+1/2'
  181  'z+1/4, -x+3/4, y+3/4'
  182  'z+1/2, y+1/2, x'
  183  'z+3/4, x+3/4, -y+1/4'
  184  'z, -y, -x'
  185  '-y+1/4, -z+3/4, -x+3/4'
  186  '-x, -z+1/2, y+1/2'
  187  'y+3/4, -z+1/4, x+3/4'
  188  'x, -z, -y'
  189  'y+1/4, z+3/4, -x+3/4'
  190  'x+1/2, z, y+1/2'
  191  '-y+3/4, z+1/4, x+3/4'
  192  '-x+1/2, z+1/2, -y'
loop_
 _atom_site_type_symbol
 _atom_site_label
 _atom_site_symmetry_multiplicity
 _atom_site_fract_x
 _atom_site_fract_y
 _atom_site_fract_z
 _atom_site_occupancy
  Pd  Pd0  8  0.00000000  0.00000000  0.50000000  1
  Pb  Pb1  8  0.00000000  0.00000000  0.00000000  1
# generated using pymatgen
data_Fe5(Pd2Pb)3
_symmetry_space_group_name_H-M   P4/mmm
_cell_length_a   4.97381344
_cell_length_b   4.97381344
_cell_length_c   22.09109457
_cell_angle_alpha   90.00000000
_cell_angle_beta   90.00000000
_cell_angle_gamma   90.00000000
_symmetry_Int_Tables_number   123
_chemical_formula_structural   Fe5(Pd2Pb)3
_chemical_formula_sum   'ID_16'
_cell_volume   546.50761612
_cell_formula_units_Z   1
loop_
 _symmetry_equiv_pos_site_id
 _symmetry_equiv_pos_as_xyz
  1  'x, y, z'
  2  '-x, -y, -z'
  3  '-y, x, z'
  4  'y, -x, -z'
  5  '-x, -y, z'
  6  'x, y, -z'
  7  'y, -x, z'
  8  '-y, x, -z'
  9  'x, -y, -z'
  10  '-x, y, z'
  11  '-y, -x, -z'
  12  'y, x, z'
  13  '-x, y, -z'
  14  'x, -y, z'
  15  'y, x, -z'
  16  '-y, -x, z'
loop_
 _atom_site_type_symbol
 _atom_site_label
 _atom_site_symmetry_multiplicity
 _atom_site_fract_x
 _atom_site_fract_y
 _atom_site_fract_z
 _atom_site_occupancy
  Fe  Fe0  2  0.00000000  0.00000000  0.39753489  1
  Fe  Fe1  2  0.00000000  0.50000000  0.50000000  1
  Fe  Fe2  1  0.00000000  0.00000000  0.50000000  1
  Pd  Pd3  4  0.00000000  0.50000000  0.39071197  1
  Pd  Pd4  2  0.50000000  0.50000000  0.35772885  1
  Pb  Pb5  2  0.00000000  0.50000000  0.00000000  1
  Pb  Pb6  1  0.50000000  0.50000000  0.50000000  1
