# generated using pymatgen
data_SmFe2Co7
_symmetry_space_group_name_H-M   I-4m2
_cell_length_a   6.16647259
_cell_length_b   6.16647259
_cell_length_c   9.18483205
_cell_angle_alpha   90.00000000
_cell_angle_beta   90.00000000
_cell_angle_gamma   90.00000000
_symmetry_Int_Tables_number   119
_chemical_formula_structural   SmFe2Co7
_chemical_formula_sum   'ID_0'
_cell_volume   349.25676711
_cell_formula_units_Z   2
loop_
 _symmetry_equiv_pos_site_id
 _symmetry_equiv_pos_as_xyz
  1  'x, y, z'
  2  'y, -x, -z'
  3  '-x, -y, z'
  4  '-y, x, -z'
  5  '-x, y, z'
  6  '-y, -x, -z'
  7  'x, -y, z'
  8  'y, x, -z'
  9  'x+1/2, y+1/2, z+1/2'
  10  'y+1/2, -x+1/2, -z+1/2'
  11  '-x+1/2, -y+1/2, z+1/2'
  12  '-y+1/2, x+1/2, -z+1/2'
  13  '-x+1/2, y+1/2, z+1/2'
  14  '-y+1/2, -x+1/2, -z+1/2'
  15  'x+1/2, -y+1/2, z+1/2'
  16  'y+1/2, x+1/2, -z+1/2'
loop_
 _atom_site_type_symbol
 _atom_site_label
 _atom_site_symmetry_multiplicity
 _atom_site_fract_x
 _atom_site_fract_y
 _atom_site_fract_z
 _atom_site_occupancy
  Sm  Sm0  2  0.00000000  0.00000000  0.50000000  1
  Fe  Fe1  4  0.00000000  0.50000000  0.00510362  1
  Co  Co2  8  0.00000000  0.17340613  0.20878124  1
  Co  Co3  2  0.00000000  0.00000000  0.00000000  1
  Co  Co4  2  0.00000000  0.50000000  0.25000000  1
  Co  Co5  2  0.00000000  0.50000000  0.75000000  1
# generated using pymatgen
data_Sm3Co
_symmetry_space_group_name_H-M   P4/nmm
_cell_length_a   5.21244915
_cell_length_b   5.21244915
_cell_length_c   7.69966082
_cell_angle_alpha   90.00000000
_cell_angle_beta   90.00000000
_cell_angle_gamma   90.00000000
_symmetry_Int_Tables_number   129
_chemical_formula_structural   Sm3Co
_chemical_formula_sum   'ID_1'
_cell_volume   209.19690567
_cell_formula_units_Z   2
loop_
 _symmetry_equiv_pos_site_id
 _symmetry_equiv_pos_as_xyz
  1  'x, y, z'
  2  '-y+1/2, x+1/2, z'
  3  '-x, -y, z'
  4  'y+1/2, -x+1/2, z'
  5  'x+1/2, -y+1/2, -z'
  6  '-y, -x, -z'
  7  '-x+1/2, y+1/2, -z'
  8  'y, x, -z'
  9  '-x+1/2, -y+1/2, -z'
  10  'y, -x, -z'
  11  'x+1/2, y+1/2, -z'
  12  '-y, x, -z'
  13  '-x, y, z'
  14  'y+1/2, x+1/2, z'
  15  'x, -y, z'
  16  '-y+1/2, -x+1/2, z'
loop_
 _atom_site_type_symbol
 _atom_site_label
 _atom_site_symmetry_multiplicity
 _atom_site_fract_x
 _atom_site_fract_y
 _atom_site_fract_z
 _atom_site_occupancy
  Sm  Sm0  2  0.00000000  0.00000000  0.00000000  1
  Sm  Sm1  2  0.00000000  0.00000000  0.50000000  1
  Sm  Sm2  2  0.00000000  0.50000000  0.27341817  1
  Co  Co3  2  0.00000000  0.50000000  0.65743285  1
# generated using pymatgen
data_Sm10FeCo3
_symmetry_space_group_name_H-M   I4/m
_cell_length_a   6.71069353
_cell_length_b   6.71069353
_cell_length_c   17.79371281
_cell_angle_alpha   90.00000000
_cell_angle_beta   90.00000000
_cell_angle_gamma   90.00000000
_symmetry_Int_Tables_number   87
_chemical_formula_structural   Sm10FeCo3
_chemical_formula_sum   'ID_2'
_cell_volume   801.31152284
_cell_formula_units_Z   2
loop_
 _symmetry_equiv_pos_site_id
 _symmetry_equiv_pos_as_xyz
  1  'x, y, z'
  2  '-x, -y, -z'
  3  '-y, x, z'
  4  'y, -x, -z'
  5  '-x, -y, z'
  6  'x, y, -z'
  7  'y, -x, z'
  8  '-y, x, -z'
  9  'x+1/2, y+1/2, z+1/2'
  10  '-x+1/2, -y+1/2, -z+1/2'
  11  '-y+1/2, x+1/2, z+1/2'
  12  'y+1/2, -x+1/2, -z+1/2'
  13  '-x+1/2, -y+1/2, z+1/2'
  14  'x+1/2, y+1/2, -z+1/2'
  15  'y+1/2, -x+1/2, z+1/2'
  16  '-y+1/2, x+1/2, -z+1/2'
loop_
 _atom_site_type_symbol
 _atom_site_label
 _atom_site_symmetry_multiplicity
 _atom_site_fract_x
 _atom_site_fract_y
 _atom_site_fract_z
 _atom_site_occupancy
  Sm  Sm0  16  0.24879288  0.74886170  0.09447870  1
  Sm  Sm1  4  0.00000000  0.50000000  0.25000000  1
  Fe  Fe2  2  0.00000000  0.00000000  0.00000000  1
  Co  Co3  4  0.00000000  0.50000000  0.00000000  1
  Co  Co4  2  0.00000000  0.00000000  0.50000000  1
# generated using pymatgen
data_Sm11Fe4
_symmetry_space_group_name_H-M   P4/mmm
_cell_length_a   9.15730411
_cell_length_b   9.15730411
_cell_length_c   5.18631108
_cell_angle_alpha   90.00000000
_cell_angle_beta   90.00000000
_cell_angle_gamma   90.00000000
_symmetry_Int_Tables_number   123
_chemical_formula_structural   Sm11Fe4
_chemical_formula_sum   'ID_4'
_cell_volume   434.90443564
_cell_formula_units_Z   1
loop_
 _symmetry_equiv_pos_site_id
 _symmetry_equiv_pos_as_xyz
  1  'x, y, z'
  2  '-x, -y, -z'
  3  '-y, x, z'
  4  'y, -x, -z'
  5  '-x, -y, z'
  6  'x, y, -z'
  7  'y, -x, z'
  8  '-y, x, -z'
  9  'x, -y, -z'
  10  '-x, y, z'
  11  '-y, -x, -z'
  12  'y, x, z'
  13  '-x, y, -z'
  14  'x, -y, z'
  15  'y, x, -z'
  16  '-y, -x, z'
loop_
 _atom_site_type_symbol
 _atom_site_label
 _atom_site_symmetry_multiplicity
 _atom_site_fract_x
 _atom_site_fract_y
 _atom_site_fract_z
 _atom_site_occupancy
  Sm  Sm0  4  0.20075378  0.20075378  0.50000000  1
  Sm  Sm1  4  0.23762688  0.50000000  0.00000000  1
  Sm  Sm2  2  0.00000000  0.50000000  0.50000000  1
  Sm  Sm3  1  0.00000000  0.00000000  0.00000000  1
  Fe  Fe4  4  0.33161932  0.50000000  0.50000000  1
# generated using pymatgen
data_Sm12(FeCo)5
_symmetry_space_group_name_H-M   P3m1
_cell_length_a   12.65054066
_cell_length_b   12.65054066
_cell_length_c   4.36748932
_cell_angle_alpha   90.00000000
_cell_angle_beta   90.00000000
_cell_angle_gamma   120.00000000
_symmetry_Int_Tables_number   156
_chemical_formula_structural   Sm12(FeCo)5
_chemical_formula_sum   'ID_3'
_cell_volume   605.31391343
_cell_formula_units_Z   1
loop_
 _symmetry_equiv_pos_site_id
 _symmetry_equiv_pos_as_xyz
  1  'x, y, z'
  2  '-y, x-y, z'
  3  '-x+y, -x, z'
  4  '-y, -x, z'
  5  '-x+y, y, z'
  6  'x, x-y, z'
loop_
 _atom_site_type_symbol
 _atom_site_label
 _atom_site_symmetry_multiplicity
 _atom_site_fract_x
 _atom_site_fract_y
 _atom_site_fract_z
 _atom_site_occupancy
  Sm  Sm0  6  0.08835245  0.40932412  0.13869586  1
  Sm  Sm1  3  0.46915483  0.23457741  0.13873833  1
  Sm  Sm2  3  0.54544792  0.09089585  0.63866254  1
  Fe  Fe3  3  0.11882717  0.23765434  0.63667273  1
  Fe  Fe4  1  0.00000000  0.00000000  0.37963997  1
  Fe  Fe5  1  0.66666667  0.33333333  0.63894434  1
  Co  Co6  3  0.09274266  0.90725734  0.13420085  1
  Co  Co7  1  0.00000000  0.00000000  0.86045046  1
  Co  Co8  1  0.33333333  0.66666667  0.13992166  1
# generated using pymatgen
data_Sm3FeCo3
_symmetry_space_group_name_H-M   P-42c
_cell_length_a   5.70619670
_cell_length_b   5.70619670
_cell_length_c   18.73286834
_cell_angle_alpha   90.00000000
_cell_angle_beta   90.00000000
_cell_angle_gamma   90.00000000
_symmetry_Int_Tables_number   112
_chemical_formula_structural   Sm3FeCo3
_chemical_formula_sum   'ID_5'
_cell_volume   609.95494537
_cell_formula_units_Z   4
loop_
 _symmetry_equiv_pos_site_id
 _symmetry_equiv_pos_as_xyz
  1  'x, y, z'
  2  'y, -x, -z'
  3  '-x, -y, z'
  4  '-y, x, -z'
  5  'x, -y, -z+1/2'
  6  'y, x, z+1/2'
  7  '-x, y, -z+1/2'
  8  '-y, -x, z+1/2'
loop_
 _atom_site_type_symbol
 _atom_site_label
 _atom_site_symmetry_multiplicity
 _atom_site_fract_x
 _atom_site_fract_y
 _atom_site_fract_z
 _atom_site_occupancy
  Sm  Sm0  8  0.14812857  0.24576737  0.92446098  1
  Sm  Sm1  2  0.00000000  0.00000000  0.25000000  1
  Sm  Sm2  2  0.50000000  0.50000000  0.25000000  1
  Fe  Fe3  2  0.00000000  0.50000000  0.25000000  1
  Fe  Fe4  2  0.50000000  0.50000000  0.00000000  1
  Co  Co5  8  0.14462447  0.35135793  0.14010688  1
  Co  Co6  4  0.50000000  0.50000000  0.11240794  1
# generated using pymatgen
data_Sm2Fe5
_symmetry_space_group_name_H-M   I4mm
_cell_length_a   5.06463608
_cell_length_b   5.06463608
_cell_length_c   10.06248390
_cell_angle_alpha   90.00000000
_cell_angle_beta   90.00000000
_cell_angle_gamma   90.00000000
_symmetry_Int_Tables_number   107
_chemical_formula_structural   Sm2Fe5
_chemical_formula_sum   'ID_6'
_cell_volume   258.10813148
_cell_formula_units_Z   2
loop_
 _symmetry_equiv_pos_site_id
 _symmetry_equiv_pos_as_xyz
  1  'x, y, z'
  2  '-y, x, z'
  3  '-x, -y, z'
  4  'y, -x, z'
  5  '-x, y, z'
  6  'y, x, z'
  7  'x, -y, z'
  8  '-y, -x, z'
  9  'x+1/2, y+1/2, z+1/2'
  10  '-y+1/2, x+1/2, z+1/2'
  11  '-x+1/2, -y+1/2, z+1/2'
  12  'y+1/2, -x+1/2, z+1/2'
  13  '-x+1/2, y+1/2, z+1/2'
  14  'y+1/2, x+1/2, z+1/2'
  15  'x+1/2, -y+1/2, z+1/2'
  16  '-y+1/2, -x+1/2, z+1/2'
loop_
 _atom_site_type_symbol
 _atom_site_label
 _atom_site_symmetry_multiplicity
 _atom_site_fract_x
 _atom_site_fract_y
 _atom_site_fract_z
 _atom_site_occupancy
  Sm  Sm0  4  0.00000000  0.50000000  0.32153281  1
  Fe  Fe1  8  0.23407989  0.23407989  0.56571081  1
  Fe  Fe2  2  0.00000000  0.00000000  0.19007487  1
# generated using pymatgen
data_Sm2Fe5Co3
_symmetry_space_group_name_H-M   I4_1/amd
_cell_length_a   5.83266198
_cell_length_b   5.83266198
_cell_length_c   19.14302320
_cell_angle_alpha   90.00000000
_cell_angle_beta   90.00000000
_cell_angle_gamma   90.00000000
_symmetry_Int_Tables_number   141
_chemical_formula_structural   Sm2Fe5Co3
_chemical_formula_sum   'ID_8'
_cell_volume   651.24461224
_cell_formula_units_Z   4
loop_
 _symmetry_equiv_pos_site_id
 _symmetry_equiv_pos_as_xyz
  1  'x, y, z'
  2  '-y, x+1/2, z+1/4'
  3  '-x+1/2, -y+1/2, z+1/2'
  4  'y+1/2, -x, z+3/4'
  5  'x, -y+1/2, -z+1/4'
  6  '-y, -x, -z'
  7  '-x+1/2, y, -z+3/4'
  8  'y+1/2, x+1/2, -z+1/2'
  9  '-x, -y+1/2, -z+1/4'
  10  'y, -x, -z'
  11  'x+1/2, y, -z+3/4'
  12  '-y+1/2, x+1/2, -z+1/2'
  13  '-x, y, z'
  14  'y, x+1/2, z+1/4'
  15  'x+1/2, -y+1/2, z+1/2'
  16  '-y+1/2, -x, z+3/4'
  17  'x+1/2, y+1/2, z+1/2'
  18  '-y+1/2, x, z+3/4'
  19  '-x, -y, z'
  20  'y, -x+1/2, z+1/4'
  21  'x+1/2, -y, -z+3/4'
  22  '-y+1/2, -x+1/2, -z+1/2'
  23  '-x, y+1/2, -z+1/4'
  24  'y, x, -z'
  25  '-x+1/2, -y, -z+3/4'
  26  'y+1/2, -x+1/2, -z+1/2'
  27  'x, y+1/2, -z+1/4'
  28  '-y, x, -z'
  29  '-x+1/2, y+1/2, z+1/2'
  30  'y+1/2, x, z+3/4'
  31  'x, -y, z'
  32  '-y, -x+1/2, z+1/4'
loop_
 _atom_site_type_symbol
 _atom_site_label
 _atom_site_symmetry_multiplicity
 _atom_site_fract_x
 _atom_site_fract_y
 _atom_site_fract_z
 _atom_site_occupancy
  Sm  Sm0  8  0.00000000  0.00000000  0.23314984  1
  Fe  Fe1  16  0.00000000  0.20342881  0.89730921  1
  Fe  Fe2  4  0.00000000  0.00000000  0.50000000  1
  Co  Co3  8  0.00000000  0.25000000  0.62500000  1
  Co  Co4  4  0.00000000  0.00000000  0.00000000  1
# generated using pymatgen
data_Sm11(FeCo4)3
_symmetry_space_group_name_H-M   R3
_cell_length_a   8.56701335
_cell_length_b   8.56701335
_cell_length_c   25.08862966
_cell_angle_alpha   90.00000000
_cell_angle_beta   90.00000000
_cell_angle_gamma   120.00000000
_symmetry_Int_Tables_number   146
_chemical_formula_structural   Sm11(FeCo4)3
_chemical_formula_sum   'ID_7'
_cell_volume   1594.65397714
_cell_formula_units_Z   3
loop_
 _symmetry_equiv_pos_site_id
 _symmetry_equiv_pos_as_xyz
  1  'x, y, z'
  2  '-y, x-y, z'
  3  '-x+y, -x, z'
  4  'x+2/3, y+1/3, z+1/3'
  5  '-y+2/3, x-y+1/3, z+1/3'
  6  '-x+y+2/3, -x+1/3, z+1/3'
  7  'x+1/3, y+2/3, z+2/3'
  8  '-y+1/3, x-y+2/3, z+2/3'
  9  '-x+y+1/3, -x+2/3, z+2/3'
loop_
 _atom_site_type_symbol
 _atom_site_label
 _atom_site_symmetry_multiplicity
 _atom_site_fract_x
 _atom_site_fract_y
 _atom_site_fract_z
 _atom_site_occupancy
  Sm  Sm0  9  0.00076277  0.24955651  0.64208908  1
  Sm  Sm1  9  0.01380769  0.76253271  0.88637221  1
  Sm  Sm2  9  0.10499990  0.43621586  0.78387860  1
  Sm  Sm3  3  0.00000000  0.00000000  0.50608877  1
  Sm  Sm4  3  0.00000000  0.00000000  0.75494496  1
  Fe  Fe5  9  0.01058107  0.15753762  0.38684213  1
  Co  Co6  9  0.00147003  0.69192143  0.03301326  1
  Co  Co7  9  0.02336594  0.60413222  0.11479168  1
  Co  Co8  9  0.04499196  0.17985790  0.22108929  1
  Co  Co9  9  0.17351653  0.14157963  0.30217292  1
# generated using pymatgen
data_Sm4Fe3Co2
_symmetry_space_group_name_H-M   P2_1/c
_cell_length_a   6.41953889
_cell_length_b   5.94714235
_cell_length_c   9.44873918
_cell_angle_alpha   90.00000000
_cell_angle_beta   95.58713671
_cell_angle_gamma   90.00000000
_symmetry_Int_Tables_number   14
_chemical_formula_structural   Sm4Fe3Co2
_chemical_formula_sum   'ID_9'
_cell_volume   359.01938781
_cell_formula_units_Z   2
loop_
 _symmetry_equiv_pos_site_id
 _symmetry_equiv_pos_as_xyz
  1  'x, y, z'
  2  '-x, -y, -z'
  3  '-x, y+1/2, -z+1/2'
  4  'x, -y+1/2, z+1/2'
loop_
 _atom_site_type_symbol
 _atom_site_label
 _atom_site_symmetry_multiplicity
 _atom_site_fract_x
 _atom_site_fract_y
 _atom_site_fract_z
 _atom_site_occupancy
  Sm  Sm0  4  0.08931927  0.50718530  0.32300638  1
  Sm  Sm1  4  0.42099306  0.51581726  0.82306884  1
  Fe  Fe2  4  0.13292572  0.13253430  0.52712316  1
  Fe  Fe3  2  0.50000000  0.00000000  0.00000000  1
  Co  Co4  4  0.23361412  0.74280860  0.06068590  1
# generated using pymatgen
data_Co
_symmetry_space_group_name_H-M   Im-3m
_cell_length_a   4.34216634
_cell_length_b   4.34216634
_cell_length_c   4.34216634
_cell_angle_alpha   90.00000000
_cell_angle_beta   90.00000000
_cell_angle_gamma   90.00000000
_symmetry_Int_Tables_number   229
_chemical_formula_structural   Co
_chemical_formula_sum   'ID_10'
_cell_volume   81.86897795
_cell_formula_units_Z   6
loop_
 _symmetry_equiv_pos_site_id
 _symmetry_equiv_pos_as_xyz
  1  'x, y, z'
  2  '-x, -y, -z'
  3  '-y, x, z'
  4  'y, -x, -z'
  5  '-x, -y, z'
  6  'x, y, -z'
  7  'y, -x, z'
  8  '-y, x, -z'
  9  'x, -y, -z'
  10  '-x, y, z'
  11  '-y, -x, -z'
  12  'y, x, z'
  13  '-x, y, -z'
  14  'x, -y, z'
  15  'y, x, -z'
  16  '-y, -x, z'
  17  'z, x, y'
  18  '-z, -x, -y'
  19  'z, -y, x'
  20  '-z, y, -x'
  21  'z, -x, -y'
  22  '-z, x, y'
  23  'z, y, -x'
  24  '-z, -y, x'
  25  '-z, x, -y'
  26  'z, -x, y'
  27  '-z, -y, -x'
  28  'z, y, x'
  29  '-z, -x, y'
  30  'z, x, -y'
  31  '-z, y, x'
  32  'z, -y, -x'
  33  'y, z, x'
  34  '-y, -z, -x'
  35  'x, z, -y'
  36  '-x, -z, y'
  37  '-y, z, -x'
  38  'y, -z, x'
  39  '-x, z, y'
  40  'x, -z, -y'
  41  '-y, -z, x'
  42  'y, z, -x'
  43  '-x, -z, -y'
  44  'x, z, y'
  45  'y, -z, -x'
  46  '-y, z, x'
  47  'x, -z, y'
  48  '-x, z, -y'
  49  'x+1/2, y+1/2, z+1/2'
  50  '-x+1/2, -y+1/2, -z+1/2'
  51  '-y+1/2, x+1/2, z+1/2'
  52  'y+1/2, -x+1/2, -z+1/2'
  53  '-x+1/2, -y+1/2, z+1/2'
  54  'x+1/2, y+1/2, -z+1/2'
  55  'y+1/2, -x+1/2, z+1/2'
  56  '-y+1/2, x+1/2, -z+1/2'
  57  'x+1/2, -y+1/2, -z+1/2'
  58  '-x+1/2, y+1/2, z+1/2'
  59  '-y+1/2, -x+1/2, -z+1/2'
  60  'y+1/2, x+1/2, z+1/2'
  61  '-x+1/2, y+1/2, -z+1/2'
  62  'x+1/2, -y+1/2, z+1/2'
  63  'y+1/2, x+1/2, -z+1/2'
  64  '-y+1/2, -x+1/2, z+1/2'
  65  'z+1/2, x+1/2, y+1/2'
  66  '-z+1/2, -x+1/2, -y+1/2'
  67  'z+1/2, -y+1/2, x+1/2'
  68  '-z+1/2, y+1/2, -x+1/2'
  69  'z+1/2, -x+1/2, -y+1/2'
  70  '-z+1/2, x+1/2, y+1/2'
  71  'z+1/2, y+1/2, -x+1/2'
  72  '-z+1/2, -y+1/2, x+1/2'
  73  '-z+1/2, x+1/2, -y+1/2'
  74  'z+1/2, -x+1/2, y+1/2'
  75  '-z+1/2, -y+1/2, -x+1/2'
  76  'z+1/2, y+1/2, x+1/2'
  77  '-z+1/2, -x+1/2, y+1/2'
  78  'z+1/2, x+1/2, -y+1/2'
  79  '-z+1/2, y+1/2, x+1/2'
  80  'z+1/2, -y+1/2, -x+1/2'
  81  'y+1/2, z+1/2, x+1/2'
  82  '-y+1/2, -z+1/2, -x+1/2'
  83  'x+1/2, z+1/2, -y+1/2'
  84  '-x+1/2, -z+1/2, y+1/2'
  85  '-y+1/2, z+1/2, -x+1/2'
  86  'y+1/2, -z+1/2, x+1/2'
  87  '-x+1/2, z+1/2, y+1/2'
  88  'x+1/2, -z+1/2, -y+1/2'
  89  '-y+1/2, -z+1/2, x+1/2'
  90  'y+1/2, z+1/2, -x+1/2'
  91  '-x+1/2, -z+1/2, -y+1/2'
  92  'x+1/2, z+1/2, y+1/2'
  93  'y+1/2, -z+1/2, -x+1/2'
  94  '-y+1/2, z+1/2, x+1/2'
  95  'x+1/2, -z+1/2, y+1/2'
  96  '-x+1/2, z+1/2, -y+1/2'
loop_
 _atom_site_type_symbol
 _atom_site_label
 _atom_site_symmetry_multiplicity
 _atom_site_fract_x
 _atom_site_fract_y
 _atom_site_fract_z
 _atom_site_occupancy
  Co  Co0  6  0.00000000  0.00000000  0.50000000  1
# generated using pymatgen
data_Sm7Fe2Co7
_symmetry_space_group_name_H-M   P-43m
_cell_length_a   7.49999049
_cell_length_b   7.49999049
_cell_length_c   7.49999049
_cell_angle_alpha   90.00000000
_cell_angle_beta   90.00000000
_cell_angle_gamma   90.00000000
_symmetry_Int_Tables_number   215
_chemical_formula_structural   Sm7Fe2Co7
_chemical_formula_sum   'ID_12'
_cell_volume   421.87339510
_cell_formula_units_Z   1
loop_
 _symmetry_equiv_pos_site_id
 _symmetry_equiv_pos_as_xyz
  1  'x, y, z'
  2  'y, -x, -z'
  3  '-x, -y, z'
  4  '-y, x, -z'
  5  'x, -y, -z'
  6  'y, x, z'
  7  '-x, y, -z'
  8  '-y, -x, z'
  9  'z, x, y'
  10  '-z, y, -x'
  11  'z, -x, -y'
  12  '-z, -y, x'
  13  '-z, x, -y'
  14  'z, y, x'
  15  '-z, -x, y'
  16  'z, -y, -x'
  17  'y, z, x'
  18  '-x, -z, y'
  19  '-y, z, -x'
  20  'x, -z, -y'
  21  '-y, -z, x'
  22  'x, z, y'
  23  'y, -z, -x'
  24  '-x, z, -y'
loop_
 _atom_site_type_symbol
 _atom_site_label
 _atom_site_symmetry_multiplicity
 _atom_site_fract_x
 _atom_site_fract_y
 _atom_site_fract_z
 _atom_site_occupancy
  Sm  Sm0  4  0.17630189  0.17630189  0.17630189  1
  Sm  Sm1  3  0.00000000  0.50000000  0.50000000  1
  Fe  Fe2  1  0.00000000  0.00000000  0.00000000  1
  Fe  Fe3  1  0.50000000  0.50000000  0.50000000  1
  Co  Co4  4  0.34473109  0.34473109  0.34473109  1
  Co  Co5  3  0.00000000  0.00000000  0.50000000  1
# generated using pymatgen
data_SmFe4
_symmetry_space_group_name_H-M   P6mm
_cell_length_a   4.77439611
_cell_length_b   4.77439611
_cell_length_c   5.05237004
_cell_angle_alpha   90.00000000
_cell_angle_beta   90.00000000
_cell_angle_gamma   120.00000000
_symmetry_Int_Tables_number   183
_chemical_formula_structural   SmFe4
_chemical_formula_sum   'ID_13'
_cell_volume   99.73846460
_cell_formula_units_Z   1
loop_
 _symmetry_equiv_pos_site_id
 _symmetry_equiv_pos_as_xyz
  1  'x, y, z'
  2  'x-y, x, z'
  3  '-y, x-y, z'
  4  '-x, -y, z'
  5  '-x+y, -x, z'
  6  'y, -x+y, z'
  7  'y, x, z'
  8  'x, x-y, z'
  9  'x-y, -y, z'
  10  '-y, -x, z'
  11  '-x, -x+y, z'
  12  '-x+y, y, z'
loop_
 _atom_site_type_symbol
 _atom_site_label
 _atom_site_symmetry_multiplicity
 _atom_site_fract_x
 _atom_site_fract_y
 _atom_site_fract_z
 _atom_site_occupancy
  Sm  Sm0  1  0.00000000  0.00000000  0.69016095  1
  Fe  Fe1  3  0.00000000  0.50000000  0.16575264  1
  Fe  Fe2  1  0.00000000  0.00000000  0.19381454  1
# generated using pymatgen
data_Sm10Fe9Co7
_symmetry_space_group_name_H-M   Im-3
_cell_length_a   12.43087458
_cell_length_b   12.43087458
_cell_length_c   12.43087458
_cell_angle_alpha   90.00000000
_cell_angle_beta   90.00000000
_cell_angle_gamma   90.00000000
_symmetry_Int_Tables_number   204
_chemical_formula_structural   Sm10Fe9Co7
_chemical_formula_sum   'ID_14'
_cell_volume   1920.90131576
_cell_formula_units_Z   2
loop_
 _symmetry_equiv_pos_site_id
 _symmetry_equiv_pos_as_xyz
  1  'x, y, z'
  2  '-x, -y, -z'
  3  '-x, -y, z'
  4  'x, y, -z'
  5  'x, -y, -z'
  6  '-x, y, z'
  7  '-x, y, -z'
  8  'x, -y, z'
  9  'z, x, y'
  10  '-z, -x, -y'
  11  'z, -x, -y'
  12  '-z, x, y'
  13  '-z, x, -y'
  14  'z, -x, y'
  15  '-z, -x, y'
  16  'z, x, -y'
  17  'y, z, x'
  18  '-y, -z, -x'
  19  '-y, z, -x'
  20  'y, -z, x'
  21  '-y, -z, x'
  22  'y, z, -x'
  23  'y, -z, -x'
  24  '-y, z, x'
  25  'x+1/2, y+1/2, z+1/2'
  26  '-x+1/2, -y+1/2, -z+1/2'
  27  '-x+1/2, -y+1/2, z+1/2'
  28  'x+1/2, y+1/2, -z+1/2'
  29  'x+1/2, -y+1/2, -z+1/2'
  30  '-x+1/2, y+1/2, z+1/2'
  31  '-x+1/2, y+1/2, -z+1/2'
  32  'x+1/2, -y+1/2, z+1/2'
  33  'z+1/2, x+1/2, y+1/2'
  34  '-z+1/2, -x+1/2, -y+1/2'
  35  'z+1/2, -x+1/2, -y+1/2'
  36  '-z+1/2, x+1/2, y+1/2'
  37  '-z+1/2, x+1/2, -y+1/2'
  38  'z+1/2, -x+1/2, y+1/2'
  39  '-z+1/2, -x+1/2, y+1/2'
  40  'z+1/2, x+1/2, -y+1/2'
  41  'y+1/2, z+1/2, x+1/2'
  42  '-y+1/2, -z+1/2, -x+1/2'
  43  '-y+1/2, z+1/2, -x+1/2'
  44  'y+1/2, -z+1/2, x+1/2'
  45  '-y+1/2, -z+1/2, x+1/2'
  46  'y+1/2, z+1/2, -x+1/2'
  47  'y+1/2, -z+1/2, -x+1/2'
  48  '-y+1/2, z+1/2, x+1/2'
loop_
 _atom_site_type_symbol
 _atom_site_label
 _atom_site_symmetry_multiplicity
 _atom_site_fract_x
 _atom_site_fract_y
 _atom_site_fract_z
 _atom_site_occupancy
  Sm  Sm0  12  0.00000000  0.00000000  0.32734652  1
  Sm  Sm1  8  0.25000000  0.25000000  0.25000000  1
  Fe  Fe2  12  0.00000000  0.20283674  0.50000000  1
  Fe  Fe3  6  0.00000000  0.00000000  0.50000000  1
  Co  Co4  12  0.00000000  0.00000000  0.16177830  1
  Co  Co5  2  0.00000000  0.00000000  0.00000000  1
# generated using pymatgen
data_SmFeCo
_symmetry_space_group_name_H-M   P-6m2
_cell_length_a   3.88375467
_cell_length_b   3.88375467
_cell_length_c   4.24179339
_cell_angle_alpha   90.00000000
_cell_angle_beta   90.00000000
_cell_angle_gamma   120.00000000
_symmetry_Int_Tables_number   187
_chemical_formula_structural   SmFeCo
_chemical_formula_sum   'ID_15'
_cell_volume   55.40943487
_cell_formula_units_Z   1
loop_
 _symmetry_equiv_pos_site_id
 _symmetry_equiv_pos_as_xyz
  1  'x, y, z'
  2  '-x+y, -x, -z'
  3  '-y, x-y, z'
  4  'x, y, -z'
  5  '-x+y, -x, z'
  6  '-y, x-y, -z'
  7  '-y, -x, -z'
  8  'x, x-y, z'
  9  '-x+y, y, -z'
  10  '-y, -x, z'
  11  'x, x-y, -z'
  12  '-x+y, y, z'
loop_
 _atom_site_type_symbol
 _atom_site_label
 _atom_site_symmetry_multiplicity
 _atom_site_fract_x
 _atom_site_fract_y
 _atom_site_fract_z
 _atom_site_occupancy
  Sm  Sm0  1  0.33333333  0.66666667  0.50000000  1
  Fe  Fe1  1  0.00000000  0.00000000  0.00000000  1
  Co  Co2  1  0.66666667  0.33333333  0.00000000  1
# generated using pymatgen
data_Sm12Fe3Co5
_symmetry_space_group_name_H-M   P31m
_cell_length_a   6.91790099
_cell_length_b   6.91790099
_cell_length_c   16.65755359
_cell_angle_alpha   90.00000000
_cell_angle_beta   90.00000000
_cell_angle_gamma   120.00000000
_symmetry_Int_Tables_number   157
_chemical_formula_structural   Sm12Fe3Co5
_chemical_formula_sum   'ID_16'
_cell_volume   690.38370883
_cell_formula_units_Z   1
loop_
 _symmetry_equiv_pos_site_id
 _symmetry_equiv_pos_as_xyz
  1  'x, y, z'
  2  '-y, x-y, z'
  3  '-x+y, -x, z'
  4  'y, x, z'
  5  'x-y, -y, z'
  6  '-x, -x+y, z'
loop_
 _atom_site_type_symbol
 _atom_site_label
 _atom_site_symmetry_multiplicity
 _atom_site_fract_x
 _atom_site_fract_y
 _atom_site_fract_z
 _atom_site_occupancy
  Sm  Sm0  3  0.00000000  0.30966905  0.21671819  1
  Sm  Sm1  3  0.00000000  0.60904368  0.61447403  1
  Sm  Sm2  3  0.00000000  0.75180305  0.98984789  1
  Sm  Sm3  2  0.33333333  0.66666667  0.43406717  1
  Sm  Sm4  1  0.00000000  0.00000000  0.06574610  1
  Fe  Fe5  2  0.33333333  0.66666667  0.28207023  1
  Fe  Fe6  1  0.00000000  0.00000000  0.45046219  1
  Co  Co7  3  0.00000000  0.27900235  0.52339354  1
  Co  Co8  1  0.00000000  0.00000000  0.31988304  1
  Co  Co9  1  0.00000000  0.00000000  0.60329532  1
# generated using pymatgen
data_Sm9Fe12Co5
_symmetry_space_group_name_H-M   Pm-3m
_cell_length_a   9.33998072
_cell_length_b   9.33998072
_cell_length_c   9.33998072
_cell_angle_alpha   90.00000000
_cell_angle_beta   90.00000000
_cell_angle_gamma   90.00000000
_symmetry_Int_Tables_number   221
_chemical_formula_structural   Sm9Fe12Co5
_chemical_formula_sum   'ID_17'
_cell_volume   814.77545808
_cell_formula_units_Z   1
loop_
 _symmetry_equiv_pos_site_id
 _symmetry_equiv_pos_as_xyz
  1  'x, y, z'
  2  '-x, -y, -z'
  3  '-y, x, z'
  4  'y, -x, -z'
  5  '-x, -y, z'
  6  'x, y, -z'
  7  'y, -x, z'
  8  '-y, x, -z'
  9  'x, -y, -z'
  10  '-x, y, z'
  11  '-y, -x, -z'
  12  'y, x, z'
  13  '-x, y, -z'
  14  'x, -y, z'
  15  'y, x, -z'
  16  '-y, -x, z'
  17  'z, x, y'
  18  '-z, -x, -y'
  19  'z, -y, x'
  20  '-z, y, -x'
  21  'z, -x, -y'
  22  '-z, x, y'
  23  'z, y, -x'
  24  '-z, -y, x'
  25  '-z, x, -y'
  26  'z, -x, y'
  27  '-z, -y, -x'
  28  'z, y, x'
  29  '-z, -x, y'
  30  'z, x, -y'
  31  '-z, y, x'
  32  'z, -y, -x'
  33  'y, z, x'
  34  '-y, -z, -x'
  35  'x, z, -y'
  36  '-x, -z, y'
  37  '-y, z, -x'
  38  'y, -z, x'
  39  '-x, z, y'
  40  'x, -z, -y'
  41  '-y, -z, x'
  42  'y, z, -x'
  43  '-x, -z, -y'
  44  'x, z, y'
  45  'y, -z, -x'
  46  '-y, z, x'
  47  'x, -z, y'
  48  '-x, z, -y'
loop_
 _atom_site_type_symbol
 _atom_site_label
 _atom_site_symmetry_multiplicity
 _atom_site_fract_x
 _atom_site_fract_y
 _atom_site_fract_z
 _atom_site_occupancy
  Sm  Sm0  6  0.00000000  0.00000000  0.26072700  1
  Sm  Sm1  3  0.00000000  0.50000000  0.50000000  1
  Fe  Fe2  12  0.17221454  0.17221454  0.50000000  1
  Co  Co3  3  0.00000000  0.00000000  0.50000000  1
  Co  Co4  1  0.00000000  0.00000000  0.00000000  1
  Co  Co5  1  0.50000000  0.50000000  0.50000000  1
# generated using pymatgen
data_Sm4Fe3
_symmetry_space_group_name_H-M   P6/mmm
_cell_length_a   6.94241032
_cell_length_b   6.94241032
_cell_length_c   10.92733428
_cell_angle_alpha   90.00000000
_cell_angle_beta   90.00000000
_cell_angle_gamma   120.00000000
_symmetry_Int_Tables_number   191
_chemical_formula_structural   Sm4Fe3
_chemical_formula_sum   'ID_18'
_cell_volume   456.10561400
_cell_formula_units_Z   2
loop_
 _symmetry_equiv_pos_site_id
 _symmetry_equiv_pos_as_xyz
  1  'x, y, z'
  2  '-x, -y, -z'
  3  'x-y, x, z'
  4  '-x+y, -x, -z'
  5  '-y, x-y, z'
  6  'y, -x+y, -z'
  7  '-x, -y, z'
  8  'x, y, -z'
  9  '-x+y, -x, z'
  10  'x-y, x, -z'
  11  'y, -x+y, z'
  12  '-y, x-y, -z'
  13  '-y, -x, -z'
  14  'y, x, z'
  15  '-x, -x+y, -z'
  16  'x, x-y, z'
  17  '-x+y, y, -z'
  18  'x-y, -y, z'
  19  'y, x, -z'
  20  '-y, -x, z'
  21  'x, x-y, -z'
  22  '-x, -x+y, z'
  23  'x-y, -y, -z'
  24  '-x+y, y, z'
loop_
 _atom_site_type_symbol
 _atom_site_label
 _atom_site_symmetry_multiplicity
 _atom_site_fract_x
 _atom_site_fract_y
 _atom_site_fract_z
 _atom_site_occupancy
  Sm  Sm0  6  0.00000000  0.50000000  0.22288310  1
  Sm  Sm1  2  0.33333333  0.66666667  0.50000000  1
  Fe  Fe2  6  0.00000000  0.31923346  0.00000000  1
# generated using pymatgen
data_Sm(Fe2Co)5
_symmetry_space_group_name_H-M   P2/m
_cell_length_a   4.35687203
_cell_length_b   10.92789160
_cell_length_c   4.47735825
_cell_angle_alpha   90.00000000
_cell_angle_beta   91.84469619
_cell_angle_gamma   90.00000000
_symmetry_Int_Tables_number   10
_chemical_formula_structural   Sm(Fe2Co)5
_chemical_formula_sum   'ID_19'
_cell_volume   213.06293103
_cell_formula_units_Z   1
loop_
 _symmetry_equiv_pos_site_id
 _symmetry_equiv_pos_as_xyz
  1  'x, y, z'
  2  '-x, -y, -z'
  3  '-x, y, -z'
  4  'x, -y, z'
loop_
 _atom_site_type_symbol
 _atom_site_label
 _atom_site_symmetry_multiplicity
 _atom_site_fract_x
 _atom_site_fract_y
 _atom_site_fract_z
 _atom_site_occupancy
  Sm  Sm0  1  0.50000000  0.00000000  0.50000000  1
  Fe  Fe1  4  0.08790410  0.39177677  0.75035927  1
  Fe  Fe2  4  0.38201055  0.28165790  0.24728906  1
  Fe  Fe3  1  0.00000000  0.00000000  0.00000000  1
  Fe  Fe4  1  0.50000000  0.50000000  0.50000000  1
  Co  Co5  4  0.11329120  0.17765943  0.75170361  1
  Co  Co6  1  0.50000000  0.50000000  0.00000000  1
